10
Lattice="1.0 0.0 0.0 0.0 1.0 0.0 0.0 0.0 1.0" Properties=species:S:1:pos:R:3:Z:I:1 pbc="F F F"
C      0.00000000       0.00000000       0.00000000        6 
N      0.00000000       0.00000000       1.34000000        7 
N      1.16047400       0.00000000      -0.67000000        7 
N     -1.16047400       0.00000000      -0.67000000        7 
H      2.02649900       0.00000000      -0.17000000        1 
H      1.16047400       0.00000000      -1.67000000        1 
H     -1.16047400       0.00000000      -1.67000000        1 
H     -2.02649900       0.00000000      -0.17000000        1 
H     -0.86602500       0.00000000       1.84000000        1 
H      0.86602500       0.00000000       1.84000000        1 
